<?xml version="1.0" encoding="UTF-8"?>

<!-- generated on 2023-05-01 00:49:46.887226 by randomTrips.py v1_17_0+0084-cbfefb48472
<configuration>
    <net-file value="lethanhnghi.net.xml"/>
    <route-file value="lethanhnghi.rou.xml"/>
    <end value="50.0"/>
    <length value="True"/>
</configuration>
-->

<routes xmlns:xsi="http://www.w3.org/2001/XMLSchema-instance" xsi:noNamespaceSchemaLocation="http://sumo.dlr.de/xsd/routes_file.xsd">
    <trip id="0" depart="0.00" from="38136736#5" to="-200605636#2"/>
    <trip id="1" depart="1.00" from="-601529284#1" to="-601468005#2"/>
    <trip id="2" depart="2.00" from="601529284#1" to="472838714#1"/>
    <trip id="3" depart="3.00" from="838419183#0" to="-36185525#0"/>
    <trip id="4" depart="4.00" from="-946030638#4" to="-28924715#2"/>
    <trip id="5" depart="5.00" from="-480685836#2" to="28924715#2"/>
    <trip id="6" depart="6.00" from="-11552263#1" to="-480685836#2"/>
    <trip id="7" depart="7.00" from="399816039#1" to="37370971#0"/>
    <trip id="8" depart="8.00" from="-480685836#2" to="37862085"/>
    <trip id="9" depart="9.00" from="708533143#0" to="-12174148#2"/>
    <trip id="10" depart="10.00" from="704626470#3" to="596788386#1"/>
    <trip id="11" depart="11.00" from="-709289368#1" to="-38136736#4"/>
    <trip id="12" depart="12.00" from="889984931" to="-889984916#1"/>
    <trip id="13" depart="13.00" from="-36084921#1" to="-36730546#0"/>
    <trip id="14" depart="14.00" from="711379743#0" to="38136736#1"/>
    <trip id="15" depart="15.00" from="704626470#3" to="601529284#1"/>
    <trip id="16" depart="16.00" from="36084921#1" to="897470229"/>
    <trip id="17" depart="17.00" from="-889984917" to="37731777#0"/>
    <trip id="18" depart="18.00" from="708642543#1" to="397989527#1"/>
    <trip id="19" depart="19.00" from="791197834" to="37771359#4"/>
    <trip id="20" depart="20.00" from="597136845#0" to="-28924719#1"/>
    <trip id="21" depart="21.00" from="-596788386#1" to="-708596417"/>
    <trip id="22" depart="22.00" from="-28924719#1" to="-601468009#4"/>
    <trip id="23" depart="23.00" from="-36730546#2" to="-683871820#0"/>
    <trip id="24" depart="24.00" from="38136736#4" to="-946030627#0"/>
    <trip id="25" depart="25.00" from="-889984885#0" to="-596788386#0"/>
    <trip id="26" depart="26.00" from="-601529284#1" to="889984916#1"/>
    <trip id="27" depart="27.00" from="397989528#1" to="38136736#3"/>
    <trip id="28" depart="28.00" from="-399816039#2" to="601468011#1"/>
    <trip id="29" depart="29.00" from="-38136736#4" to="-946030638#3"/>
    <trip id="30" depart="30.00" from="951487947#1" to="399835468#4"/>
    <trip id="31" depart="31.00" from="36730546#0" to="480685836#1"/>
    <trip id="32" depart="32.00" from="709685350#1" to="702906185#2"/>
    <trip id="33" depart="33.00" from="-596788386#1" to="-28924715#2"/>
    <trip id="34" depart="34.00" from="-708596420#0" to="-601861003#2"/>
    <trip id="35" depart="35.00" from="-472838714#1" to="889984918#1"/>
    <trip id="36" depart="36.00" from="838419178#1" to="-791197833"/>
    <trip id="37" depart="37.00" from="399816039#2" to="11552263#1"/>
    <trip id="38" depart="38.00" from="838425490#2" to="163843403"/>
    <trip id="39" depart="39.00" from="-601529284#1" to="-601529284#1"/>
    <trip id="40" depart="40.00" from="36730553#0" to="-601529284#1"/>
    <trip id="41" depart="41.00" from="37731777#3" to="838419184#3"/>
    <trip id="42" depart="42.00" from="-889984929#0" to="-601468005#2"/>
    <trip id="43" depart="43.00" from="953227387#3" to="28924715#4"/>
    <trip id="44" depart="44.00" from="-36084921#1" to="-28924719#1"/>
    <trip id="45" depart="45.00" from="-37731777#10" to="399816039#2"/>
    <trip id="46" depart="46.00" from="704606544#1" to="12174148#2"/>
    <trip id="47" depart="47.00" from="-28924715#2" to="-946030639#0"/>
    <trip id="48" depart="48.00" from="953227387#3" to="36084921#1"/>
    <trip id="49" depart="49.00" from="946030627#1" to="791197834"/>
</routes>
