<?xml version="1.0" encoding="UTF-8"?>

<!-- generated on 2023-05-01 00:49:47.127260 by randomTrips.py v1_17_0+0084-cbfefb48472
<configuration>
    <net-file value="lethanhnghi.net.xml"/>
    <route-file value="lethanhnghi.rou.xml"/>
    <end value="50.0"/>
    <length value="True"/>
</configuration>
-->

<!-- generated on 2023-05-01 00:49:47 by Eclipse SUMO duarouter Version v1_17_0+0084-cbfefb48472
<configuration xmlns:xsi="http://www.w3.org/2001/XMLSchema-instance" xsi:noNamespaceSchemaLocation="http://sumo.dlr.de/xsd/duarouterConfiguration.xsd">

    <input>
        <net-file value="lethanhnghi.net.xml"/>
        <route-files value="trips.trips.xml"/>
    </input>

    <output>
        <output-file value="lethanhnghi.rou.xml"/>
        <alternatives-output value="NUL"/>
    </output>

    <time>
        <begin value="0"/>
        <end value="50.0"/>
    </time>

    <report>
        <no-warnings value="true"/>
        <ignore-errors value="true"/>
        <no-step-log value="true"/>
    </report>

</configuration>
-->

<routes xmlns:xsi="http://www.w3.org/2001/XMLSchema-instance" xsi:noNamespaceSchemaLocation="http://sumo.dlr.de/xsd/routes_file.xsd">
    <vehicle id="0" depart="0.00">
        <route edges="38136736#5 38136736#6 38136736#7 38136736#8 708596416#0 708596416#1 708596411 708596412 702914101#0 702914101#1 28924692#0 28924692#1 28924692#2 28924692#3 28924692#4 28924692#5 28924692#6 838419183#0 838419183#1 838419183#2 838419183#3 838419183#4 838419183#5 953227387#0 953227387#1 -200605636#4 -200605636#3 -200605636#2"/>
    </vehicle>
    <vehicle id="1" depart="1.00">
        <route edges="-601529284#1 -601529284#0 601529284#0 601529284#1 601529284#2 163843396#0 163843396#1 163843396#2 601455489 947077276#3 704626470#0 704626470#1 704626470#2 704626470#3 704626470#4 947077277#0 947077277#1 704626468#0 704626468#1 838419181#0 838419181#1 838419182 704626467#0 704626467#1 709685353#0 709685353#1 25211482 875229044#0 875229044#1 709685350#0 709685350#1 709685351#0 709685351#1 708596420#0 708596420#1 708596420#2 708596420#3 601468005#0 601468005#1 601468005#2 601468005#3 -601468005#3 -601468005#2"/>
    </vehicle>
    <vehicle id="2" depart="2.00">
        <route edges="601529284#1 601529284#2 163843396#0 163843396#1 163843396#2 601455489 962177672 711379743#0 711379743#1 711379743#2 711379743#3 711379742#0 711379742#1 37370971#0 223812344 480685836#0 480685836#1 480685836#2 480685836#3 480685836#4 480685836#5 -708533143#4 -708533143#3 -708533143#2 -708533143#1 -708533143#0 -946030639#3 -946030639#2 -946030639#1 -946030639#0 953227387#0 953227387#1 953227387#2 953227387#3 953227387#4 953227387#5 -953227388 838419183#0 838419183#1 838419183#2 838419183#3 838419183#4 472838714#0 472838714#1"/>
    </vehicle>
    <vehicle id="3" depart="3.00">
        <route edges="838419183#0 838419183#1 838419183#2 838419183#3 838419183#4 838419183#5 953227387#0 953227387#1 953227387#2 953227387#3 953227387#4 953227387#5 -953227388 -472431976#14 -472431976#13 -472431976#12 -472431976#11 -472431976#10 -472431976#9 -472431976#8 -472431976#7 -472431976#6 -472431976#5 -472431976#4 -472431976#3 -472431976#2 -472431976#1 -472431976#0 838419182 704626467#0 704626467#1 178100060 875229042#2 -36185525#2 -36185525#1 -36185525#0"/>
    </vehicle>
    <vehicle id="4" depart="4.00">
        <route edges="-946030638#4 -946030638#3 946030638#3 946030638#4 946030638#5 708596415 708596412 702914101#0 702914101#1 28924692#0 28924692#1 28924692#2 28924692#3 28924692#4 28924692#5 28924692#6 838419183#0 838419183#1 838419183#2 838419183#3 838419183#4 838419183#5 28924727#0 28924727#1 28924727#2 28924727#3 28924727#4 -28924715#2"/>
    </vehicle>
    <vehicle id="5" depart="5.00">
        <route edges="-480685836#2 480685836#2 480685836#3 480685836#4 480685836#5 -708533143#4 -708533143#3 -708533143#2 -708533143#1 -708533143#0 -946030639#3 -946030639#2 -946030639#1 -684283623#1 -684283623#0 28924715#2"/>
    </vehicle>
    <vehicle id="6" depart="6.00">
        <route edges="-11552263#1 -11552263#0 397989528#1 397989528#2 397989528#3 918225680 709685351#0 709685351#1 708596420#0 708596420#1 708596420#2 708596420#3 708596420#4 708596420#5 708596420#6 708596420#7 708596420#8 708596420#9 708596420#10 708596420#11 708596420#12 708596420#13 708596420#14 708596420#15 708596420#16 708596420#17 -708596417 965302189 708596418#0 708596418#1 702914101#0 702914101#1 28924692#0 28924692#1 28924692#2 28924692#3 28924692#4 28924692#5 28924692#6 838419183#0 838419183#1 838419183#2 838419183#3 838419183#4 838419183#5 946030639#0 946030639#1 946030639#2 946030639#3 708533143#0 708533143#1 708533143#2 708533143#3 708533143#4 -480685836#5 -480685836#4 -480685836#3 -480685836#2"/>
    </vehicle>
    <vehicle id="7" depart="7.00">
        <route edges="399816039#1 -399816039#1 -399816039#0 708596420#17 -708596417 965302189 708596418#0 708596418#1 702914101#0 702914101#1 28924692#0 28924692#1 28924692#2 28924692#3 28924692#4 28924692#5 28924692#6 838419183#0 838419183#1 838419183#2 838419183#3 838419183#4 838419183#5 946030639#0 946030639#1 946030639#2 946030639#3 708533143#0 708533143#1 708533143#2 708533143#3 708533143#4 708533143#5 708533143#6 708533143#7 708533143#8 708533143#9 708533143#10 708533143#11 704606544#0 704606544#1 704606544#2 709289370 838425490#0 838425490#1 838425490#2 242518345#0 242518345#1 37370971#0"/>
    </vehicle>
    <vehicle id="8" depart="8.00">
        <route edges="-480685836#2 -480685836#1 -480685836#0 838425490#1 838425490#2 838425491#0 838425491#1 838425491#2 838425491#3 838425491#4 156006453#0 156006453#1 704626470#2 704626470#3 704626470#4 947077277#0 947077277#1 704626468#0 704626468#1 -764859227 838419180#0 838419180#1 37862085"/>
    </vehicle>
    <vehicle id="9" depart="9.00">
        <route edges="708533143#0 708533143#1 -708533143#1 -708533143#0 -946030639#3 -946030639#2 -946030639#1 -946030639#0 953227387#0 953227387#1 953227387#2 953227387#3 953227387#4 953227387#5 702906185#0 702906185#1 702906185#2 702906185#3 702906185#4 702914102#0 702914102#1 708596413 708596414 -946030638#5 -946030638#4 -946030638#3 -946030638#2 -946030638#1 -12174148#3 -12174148#2"/>
    </vehicle>
    <vehicle id="10" depart="10.00">
        <route edges="704626470#3 704626470#4 947077277#0 947077277#1 704626468#0 704626468#1 -764859227 838419180#0 838419180#1 813363002#0 813363002#1 813363002#2 399835468#0 601455489 962177672 711379743#0 -593642478#3 -593642478#2 -593642478#1 -593642478#0 596788386#1"/>
    </vehicle>
    <vehicle id="11" depart="11.00">
        <route edges="-709289368#1 -709289368#0 704606544#1 704606544#2 709289370 838425490#0 480685836#0 480685836#1 480685836#2 480685836#3 480685836#4 480685836#5 -708533143#4 -708533143#3 -708533143#2 -708533143#1 -708533143#0 -946030639#3 -946030639#2 -946030639#1 -946030639#0 953227387#0 953227387#1 953227387#2 953227387#3 953227387#4 953227387#5 702906185#0 702906185#1 702906185#2 702906185#3 702906185#4 702914102#0 702914102#1 708596410#0 708596410#1 708596410#2 -38136736#8 -38136736#7 -38136736#6 -38136736#5 -38136736#4"/>
    </vehicle>
    <vehicle id="12" depart="12.00">
        <route edges="889984931 889984929#0 889984929#1 -36730546#0 -38107860#2 -38107860#1 -38107860#0 472431976#11 472431976#12 472431976#13 472431976#14 953227388 702906185#0 702906185#1 702906185#2 702906185#3 702906185#4 702914102#0 702914102#1 708596410#0 708596410#1 708596410#2 -38136736#8 -38136736#7 37771359#0 37771359#1 37771359#2 37771359#3 -889984916#1"/>
    </vehicle>
    <vehicle id="13" depart="13.00">
        <route edges="-36084921#1 -36084921#0 36084921#0 36084921#1 36084921#2 764859227 838419181#0 838419181#1 472431976#0 472431976#1 472431976#2 472431976#3 472431976#4 472431976#5 472431976#6 472431976#7 472431976#8 472431976#9 472431976#10 38107860#0 38107860#1 38107860#2 36730546#0 -36730546#0"/>
    </vehicle>
    <vehicle id="14" depart="14.00">
        <route edges="711379743#0 711379743#1 711379743#2 711379743#3 711379742#0 711379742#1 37370971#0 223812344 480685836#0 480685836#1 480685836#2 480685836#3 480685836#4 480685836#5 -708533143#4 -708533143#3 -708533143#2 -708533143#1 -708533143#0 -946030639#3 -946030639#2 -946030639#1 -946030639#0 953227387#0 953227387#1 953227387#2 953227387#3 953227387#4 953227387#5 702906185#0 702906185#1 702906185#2 702906185#3 702906185#4 702914102#0 702914102#1 708596410#0 708596410#1 708596410#2 -38136736#8 -38136736#7 -38136736#6 -38136736#5 -38136736#4 -38136736#3 -38136736#2 -38136736#1 -38136736#0 38136736#0 38136736#1"/>
    </vehicle>
    <vehicle id="15" depart="15.00">
        <route edges="704626470#3 704626470#4 947077277#0 947077277#1 704626468#0 704626468#1 -764859227 838419180#0 838419180#1 813363002#0 813363002#1 813363002#2 163843397#0 163843397#1 -601529284#2 -601529284#1 -601529284#0 601529284#0 601529284#1"/>
    </vehicle>
    <vehicle id="16" depart="16.00">
        <route edges="36084921#1 36084921#2 764859227 838419181#0 838419181#1 472431976#0 472431976#1 472431976#2 472431976#3 472431976#4 472431976#5 472431976#6 472431976#7 472431976#8 472431976#9 472431976#10 472431976#11 472431976#12 472431976#13 472431976#14 953227388 702906185#0 702906185#1 702906185#2 702906185#3 702906185#4 702914102#0 702914102#1 708596413 708596411 708596419#0 708596419#1 708596417 -708596420#17 399816039#0 399816039#1 897470229"/>
    </vehicle>
    <vehicle id="17" depart="17.00">
        <route edges="-889984917 683871816#1 683871816#2 683871816#3 683871816#4 708596420#11 708596420#12 708596420#13 708596420#14 708596420#15 708596420#16 708596420#17 -708596417 965302189 708596418#0 708596418#1 702914101#0 702914101#1 28924692#0 28924692#1 28924692#2 28924692#3 28924692#4 28924692#5 28924692#6 838419183#0 838419183#1 838419183#2 838419183#3 838419183#4 838419183#5 946030639#0 946030639#1 946030639#2 946030639#3 -37731777#13 -37731777#12 -37731777#11 -37731777#10 -37731777#9 -37731777#8 -37731777#7 -37731777#6 -37731777#5 -37731777#4 -37731777#3 -37731777#2 -37731777#1 -37731777#0 -953227384#1 953227384#1 37731777#0"/>
    </vehicle>
    <vehicle id="18" depart="18.00">
        <route edges="708642543#1 -708642543#1 -708642543#0 -708596420#7 -708596420#6 -708596420#5 -708596420#4 -708596420#3 -708596420#2 -708596420#1 -708596420#0 -953227389 236354440#0 236354440#1 709685349 397989527#0 397989527#1"/>
    </vehicle>
    <vehicle id="19" depart="19.00">
        <route edges="791197834 -791197834 -708642543#2 -708642543#1 -708642543#0 708596420#8 708596420#9 708596420#10 708596420#11 708596420#12 708596420#13 708596420#14 708596420#15 708596420#16 708596420#17 -708596417 965302189 708596418#0 708596418#1 708596409 708596410#0 708596410#1 708596410#2 -38136736#8 -38136736#7 37771359#0 37771359#1 37771359#2 37771359#3 37771359#4"/>
    </vehicle>
    <vehicle id="20" depart="20.00">
        <route edges="597136845#0 480685836#4 480685836#5 -708533143#4 -708533143#3 -708533143#2 -708533143#1 -708533143#0 -946030639#3 -946030639#2 -946030639#1 -946030639#0 953227387#0 953227387#1 953227387#2 953227387#3 953227387#4 953227387#5 702906185#0 702906185#1 702906185#2 -28924719#2 -28924719#1"/>
    </vehicle>
    <vehicle id="21" depart="21.00">
        <route edges="-596788386#1 593642478#0 593642478#1 593642478#2 593642478#3 711379743#1 711379743#2 711379743#3 711379742#0 711379742#1 37370971#0 223812344 480685836#0 480685836#1 480685836#2 480685836#3 480685836#4 480685836#5 -708533143#4 -708533143#3 -708533143#2 -708533143#1 -708533143#0 -946030639#3 -946030639#2 -946030639#1 -946030639#0 953227387#0 953227387#1 953227387#2 953227387#3 953227387#4 953227387#5 702906185#0 702906185#1 702906185#2 702906185#3 702906185#4 702914102#0 702914102#1 708596413 708596411 708596419#0 708596419#1 708596417 -708596420#17 708596420#17 -708596417"/>
    </vehicle>
    <vehicle id="22" depart="22.00">
        <route edges="-28924719#1 -28924719#0 -838419184#3 -838419184#2 -838419184#1 -838419184#0 -953227388 -472431976#14 -472431976#13 -472431976#12 -472431976#11 -472431976#10 -472431976#9 -472431976#8 -472431976#7 -472431976#6 -472431976#5 -472431976#4 -472431976#3 -472431976#2 -472431976#1 -472431976#0 838419182 704626467#0 704626467#1 709685353#0 709685353#1 25211482 875229044#0 -601468009#5 -601468009#4"/>
    </vehicle>
    <vehicle id="23" depart="23.00">
        <route edges="-36730546#2 -36730546#1 -36730546#0 -38107860#2 -38107860#1 -38107860#0 472431976#11 472431976#12 472431976#13 472431976#14 953227388 702906185#0 702906185#1 702906185#2 702906185#3 702906185#4 702914102#0 702914102#1 708596413 708596411 708596419#0 708596419#1 708596417 -708596420#17 -708596420#16 -708596420#15 -708596420#14 -683871820#1 -683871820#0"/>
    </vehicle>
    <vehicle id="24" depart="24.00">
        <route edges="38136736#4 38136736#5 38136736#6 38136736#7 38136736#8 708596416#0 708596416#1 708596411 708596412 702914101#0 702914101#1 28924692#0 28924692#1 28924692#2 28924692#3 28924692#4 28924692#5 28924692#6 838419183#0 838419183#1 838419183#2 838419183#3 838419183#4 838419183#5 946030639#0 946030639#1 946030639#2 946030639#3 -946030627#1 -946030627#0"/>
    </vehicle>
    <vehicle id="25" depart="25.00">
        <route edges="-889984885#0 -708642543#3 -708642543#2 -708642543#1 -708642543#0 -708596420#7 -708596420#6 -708596420#5 -708596420#4 -708596420#3 -708596420#2 -708596420#1 -708596420#0 -953227389 236354440#0 236354440#1 709685349 397989527#0 397989527#1 397989527#2 875229043 875229042#0 875229042#1 875229042#2 838419179#0 838419179#1 838419179#2 838419179#3 838419179#4 838419180#0 838419180#1 813363002#0 813363002#1 813363002#2 399835468#0 601455489 962177672 711379743#0 -593642478#3 -593642478#2 -593642478#1 -593642478#0 -596788386#0"/>
    </vehicle>
    <vehicle id="26" depart="26.00">
        <route edges="-601529284#1 -601529284#0 601529284#0 601529284#1 601529284#2 163843396#0 163843396#1 163843396#2 601455489 962177672 711379743#0 711379743#1 711379743#2 711379743#3 711379742#0 711379742#1 37370971#0 223812344 480685836#0 480685836#1 480685836#2 480685836#3 480685836#4 480685836#5 -708533143#4 -708533143#3 -708533143#2 -708533143#1 -708533143#0 -946030639#3 -946030639#2 -946030639#1 -946030639#0 953227387#0 953227387#1 953227387#2 953227387#3 953227387#4 953227387#5 702906185#0 702906185#1 702906185#2 702906185#3 702906185#4 702914102#0 702914102#1 708596413 708596414 -946030638#5 -946030638#4 -946030638#3 889984916#0 889984916#1"/>
    </vehicle>
    <vehicle id="27" depart="27.00">
        <route edges="397989528#1 397989528#2 397989528#3 918225680 709685351#0 709685351#1 708596420#0 708596420#1 708596420#2 708596420#3 708596420#4 708596420#5 708596420#6 708596420#7 708596420#8 708596420#9 708596420#10 708596420#11 708596420#12 708596420#13 708596420#14 708596420#15 708596420#16 708596420#17 -708596417 965302189 708596418#0 708596418#1 708596409 708596410#0 708596410#1 708596410#2 -38136736#8 -38136736#7 -38136736#6 -38136736#5 -38136736#4 -38136736#3 -38136736#2 -38136736#1 -38136736#0 38136736#0 38136736#1 38136736#2 38136736#3"/>
    </vehicle>
    <vehicle id="28" depart="28.00">
        <route edges="-399816039#2 -399816039#1 -399816039#0 708596420#17 -708596417 965302189 708596418#0 708596418#1 702914101#0 702914101#1 28924692#0 28924692#1 28924692#2 28924692#3 28924692#4 28924692#5 28924692#6 -472431976#14 -472431976#13 -472431976#12 -472431976#11 -472431976#10 -472431976#9 -472431976#8 -472431976#7 -472431976#6 -472431976#5 -472431976#4 -158465673#2 -158465673#1 -158465673#0 601468011#0 601468011#1"/>
    </vehicle>
    <vehicle id="29" depart="29.00">
        <route edges="-38136736#4 38136736#4 38136736#5 38136736#6 38136736#7 38136736#8 708596416#0 708596416#1 708596414 -946030638#5 -946030638#4 -946030638#3"/>
    </vehicle>
    <vehicle id="31" depart="31.00">
        <route edges="36730546#0 36730546#1 36730546#2 473304000#0 473304000#1 37731777#11 37731777#12 37731777#13 708533143#0 708533143#1 708533143#2 708533143#3 708533143#4 708533143#5 708533143#6 708533143#7 708533143#8 708533143#9 708533143#10 708533143#11 704606544#0 704606544#1 704606544#2 709289370 838425490#0 480685836#0 480685836#1"/>
    </vehicle>
    <vehicle id="32" depart="32.00">
        <route edges="709685350#1 709685351#0 709685351#1 708596420#0 708596420#1 708596420#2 708596420#3 708596420#4 708596420#5 708596420#6 708596420#7 708596420#8 708596420#9 708596420#10 708596420#11 708596420#12 708596420#13 708596420#14 708596420#15 708596420#16 708596420#17 -708596417 965302189 708596418#0 708596418#1 702914101#0 702914101#1 28924692#0 28924692#1 28924692#2 28924692#3 28924692#4 28924692#5 28924692#6 953227388 702906185#0 702906185#1 702906185#2"/>
    </vehicle>
    <vehicle id="33" depart="33.00">
        <route edges="-596788386#1 593642478#0 593642478#1 593642478#2 593642478#3 711379743#1 711379743#2 711379743#3 711379742#0 711379742#1 37370971#0 223812344 480685836#0 480685836#1 480685836#2 480685836#3 480685836#4 480685836#5 -708533143#4 -708533143#3 -708533143#2 -708533143#1 -708533143#0 -946030639#3 -946030639#2 -946030639#1 -946030639#0 28924727#0 28924727#1 28924727#2 28924727#3 28924727#4 -28924715#2"/>
    </vehicle>
    <vehicle id="34" depart="34.00">
        <route edges="-708596420#0 -953227389 236354440#0 236354440#1 709685349 397989527#0 397989527#1 397989527#2 875229043 875229042#0 875229042#1 875229042#2 838419179#0 838419179#1 838419179#2 838419179#3 838419179#4 838419180#0 838419180#1 813363002#0 813363002#1 813363002#2 399835468#0 601455489 962177672 711379743#0 711379743#1 711379743#2 -897406810#2 -897406810#1 -897406810#0 -601861003#2"/>
    </vehicle>
    <vehicle id="35" depart="35.00">
        <route edges="-472838714#1 -472838714#0 838419183#5 953227387#0 953227387#1 953227387#2 953227387#3 953227387#4 953227387#5 702906185#0 702906185#1 702906185#2 702906185#3 702906185#4 702914102#0 702914102#1 708596413 708596411 708596419#0 708596419#1 708596417 -708596420#17 -708596420#16 -708596420#15 -708596420#14 -708596420#13 -708596420#12 -708596420#11 -708596420#10 -708596420#9 -708596420#8 -708596420#7 -708596420#6 -708596420#5 -708596420#4 -708596420#3 -708596420#2 -708596420#1 -708596420#0 25211489#0 25211489#1 25211489#2 889984918#0 889984918#1"/>
    </vehicle>
    <vehicle id="36" depart="36.00">
        <route edges="838419178#1 838419178#2 875229043 875229042#0 875229042#1 -178100060 709685353#0 709685353#1 25211482 875229044#0 875229044#1 709685350#0 709685350#1 709685351#0 709685351#1 708596420#0 708596420#1 708596420#2 708596420#3 708596420#4 708596420#5 708596420#6 708596420#7 708642543#0 708642543#1 -791197833"/>
    </vehicle>
    <vehicle id="37" depart="37.00">
        <route edges="399816039#2 399816039#3 946030638#2 946030638#3 946030638#4 946030638#5 708596415 708596419#0 708596419#1 708596417 -708596420#17 -708596420#16 -708596420#15 -708596420#14 -708596420#13 -708596420#12 -708596420#11 -708596420#10 -708596420#9 -708596420#8 -708596420#7 -708596420#6 -708596420#5 -708596420#4 -708596420#3 -708596420#2 -708596420#1 -708596420#0 -953227389 236354440#0 236354440#1 -397989528#3 -397989528#2 -397989528#1 11552263#0 11552263#1"/>
    </vehicle>
    <vehicle id="39" depart="39.00">
        <route edges="-601529284#1"/>
    </vehicle>
    <vehicle id="40" depart="40.00">
        <route edges="36730553#0 36730553#1 472431976#12 472431976#13 472431976#14 838419183#0 838419183#1 838419183#2 838419183#3 838419183#4 838419183#5 946030639#0 946030639#1 946030639#2 946030639#3 708533143#0 708533143#1 708533143#2 708533143#3 708533143#4 708533143#5 708533143#6 708533143#7 708533143#8 708533143#9 708533143#10 708533143#11 704606544#0 704606544#1 704606544#2 709289370 838425490#0 838425490#1 838425490#2 838425491#0 838425491#1 838425491#2 838425491#3 838425491#4 702919609#0 702919609#1 601455488 163843397#0 163843397#1 -601529284#2 -601529284#1"/>
    </vehicle>
    <vehicle id="41" depart="41.00">
        <route edges="37731777#3 37731777#4 37731777#5 37731777#6 37731777#7 37731777#8 37731777#9 37731777#10 37731777#11 37731777#12 37731777#13 -946030639#3 -946030639#2 -946030639#1 -946030639#0 953227387#0 953227387#1 953227387#2 953227387#3 953227387#4 953227387#5 838419184#0 838419184#1 838419184#2 838419184#3"/>
    </vehicle>
    <vehicle id="42" depart="42.00">
        <route edges="-889984929#0 889984929#0 889984929#1 -36730546#0 -38107860#2 -38107860#1 -38107860#0 472431976#11 472431976#12 472431976#13 472431976#14 953227388 702906185#0 702906185#1 702906185#2 702906185#3 702906185#4 702914102#0 702914102#1 708596413 708596411 708596419#0 708596419#1 708596417 -708596420#17 -708596420#16 -708596420#15 -708596420#14 -708596420#13 -708596420#12 -708596420#11 -708596420#10 -708596420#9 -708596420#8 -708596420#7 -708596420#6 -708596420#5 -708596420#4 601468005#0 601468005#1 601468005#2 601468005#3 -601468005#3 -601468005#2"/>
    </vehicle>
    <vehicle id="43" depart="43.00">
        <route edges="953227387#3 953227387#4 953227387#5 838419184#0 838419184#1 838419184#2 838419184#3 -28924715#5 -28924715#4 28924715#4"/>
    </vehicle>
    <vehicle id="44" depart="44.00">
        <route edges="-36084921#1 -36084921#0 36084921#0 36084921#1 36084921#2 764859227 838419181#0 838419181#1 472431976#0 472431976#1 472431976#2 472431976#3 472431976#4 472431976#5 472431976#6 472431976#7 472431976#8 472431976#9 472431976#10 472431976#11 472431976#12 472431976#13 472431976#14 953227388 702906185#0 702906185#1 702906185#2 -28924719#2 -28924719#1"/>
    </vehicle>
    <vehicle id="45" depart="45.00">
        <route edges="-37731777#10 -37731777#9 37731777#9 37731777#10 37731777#11 37731777#12 37731777#13 -946030639#3 -946030639#2 -946030639#1 -946030639#0 953227387#0 953227387#1 953227387#2 953227387#3 953227387#4 953227387#5 702906185#0 702906185#1 702906185#2 702906185#3 702906185#4 702914102#0 702914102#1 708596413 708596411 708596419#0 708596419#1 708596417 -708596420#17 399816039#0 399816039#1 399816039#2"/>
    </vehicle>
    <vehicle id="46" depart="46.00">
        <route edges="704606544#1 704606544#2 709289370 838425490#0 480685836#0 480685836#1 480685836#2 480685836#3 480685836#4 480685836#5 -708533143#4 -708533143#3 -708533143#2 -708533143#1 -708533143#0 -946030639#3 -946030639#2 -946030639#1 -946030639#0 953227387#0 953227387#1 953227387#2 953227387#3 953227387#4 953227387#5 702906185#0 702906185#1 702906185#2 702906185#3 702906185#4 702914102#0 702914102#1 708596413 708596411 708596419#0 708596419#1 708596417 -708596420#17 -708596420#16 -708596420#15 -708596420#14 -708596420#13 -708596420#12 -708596420#11 -708596420#10 12174148#0 12174148#1 12174148#2"/>
    </vehicle>
    <vehicle id="47" depart="47.00">
        <route edges="-28924715#2 684283623#0 684283623#1 -946030639#0"/>
    </vehicle>
    <vehicle id="48" depart="48.00">
        <route edges="953227387#3 953227387#4 953227387#5 -953227388 -472431976#14 -472431976#13 -472431976#12 -472431976#11 -472431976#10 -472431976#9 -472431976#8 -472431976#7 -472431976#6 -472431976#5 -472431976#4 -472431976#3 -472431976#2 -472431976#1 -472431976#0 838419182 704626467#0 704626467#1 178100060 875229042#2 838419179#0 838419179#1 838419179#2 838419179#3 838419179#4 -36084921#2 -36084921#1 -36084921#0 36084921#0 36084921#1"/>
    </vehicle>
    <vehicle id="49" depart="49.00">
        <route edges="946030627#1 -946030639#3 -946030639#2 -946030639#1 -946030639#0 953227387#0 953227387#1 953227387#2 953227387#3 953227387#4 953227387#5 702906185#0 702906185#1 702906185#2 702906185#3 702906185#4 702914102#0 702914102#1 708596413 708596411 708596419#0 708596419#1 708596417 -708596420#17 -708596420#16 -708596420#15 -708596420#14 -708596420#13 -708596420#12 -708596420#11 -708596420#10 -708596420#9 -708596420#8 708642543#0 708642543#1 708642543#2 791197834"/>
    </vehicle>
</routes>
